*SPEF "ieee 1481-1999"
*DESIGN "MIPSpipeline"
*DATE "19:55:57 Monday September 15, 2025"
*VENDOR "The OpenROAD Project"
*PROGRAM "OpenROAD"
*VERSION "edf00dff99f6c40d67a30c0e22a8191c5d2ed9d6"
*DESIGN_FLOW "NAME_SCOPE LOCAL" "PIN_CAP NONE"
*DIVIDER /
*DELIMITER :
*BUS_DELIMITER []
*T_UNIT 1 NS
*C_UNIT 1 PF
*R_UNIT 1 OHM
*L_UNIT 1 HENRY

*NAME_MAP
*3 clk
*4 net36
*5 current_pc[10]
*6 current_pc[11]
*7 current_pc[12]
*8 current_pc[13]
*9 current_pc[14]
*10 current_pc[15]
*11 current_pc[16]
*12 current_pc[17]
*13 current_pc[18]
*14 current_pc[19]
*15 net37
*16 current_pc[20]
*17 current_pc[21]
*18 current_pc[22]
*19 current_pc[23]
*20 current_pc[24]
*21 current_pc[25]
*22 current_pc[26]
*23 current_pc[27]
*24 current_pc[28]
*25 current_pc[29]
*26 current_pc[2]
*27 current_pc[30]
*28 current_pc[31]
*29 current_pc[3]
*30 current_pc[4]
*31 current_pc[5]
*32 current_pc[6]
*33 current_pc[7]
*34 current_pc[8]
*35 current_pc[9]
*36 reset
*37 PC4\[10\]
*38 PC4\[11\]
*39 PC4\[12\]
*40 PC4\[13\]
*41 PC4\[14\]
*42 PC4\[15\]
*43 PC4\[16\]
*44 PC4\[17\]
*45 PC4\[18\]
*46 PC4\[19\]
*47 PC4\[20\]
*48 PC4\[21\]
*49 PC4\[22\]
*50 PC4\[23\]
*51 PC4\[24\]
*52 PC4\[25\]
*53 PC4\[26\]
*54 PC4\[27\]
*55 PC4\[28\]
*56 PC4\[29\]
*57 PC4\[2\]
*58 PC4\[30\]
*59 PC4\[31\]
*60 PC4\[3\]
*61 PC4\[4\]
*62 PC4\[5\]
*63 PC4\[6\]
*64 PC4\[7\]
*65 PC4\[8\]
*66 PC4\[9\]
*67 _000_
*68 _001_
*69 _002_
*70 _003_
*71 _004_
*72 _005_
*73 _006_
*74 _007_
*75 _008_
*76 _009_
*77 _010_
*78 _011_
*79 _012_
*80 _013_
*81 _014_
*82 _015_
*83 _016_
*84 _017_
*85 _018_
*86 _019_
*87 _020_
*88 _021_
*89 _022_
*90 _023_
*91 _024_
*92 _025_
*93 _026_
*94 _027_
*95 _028_
*96 _029_
*97 _030_
*98 _031_
*99 _032_
*100 _033_
*101 _034_
*102 _035_
*103 _036_
*104 _037_
*105 _038_
*106 _039_
*107 _040_
*108 _041_
*109 _042_
*110 _043_
*111 _044_
*112 _045_
*113 _046_
*114 _047_
*115 _048_
*116 _049_
*117 _050_
*118 _051_
*119 _052_
*120 _053_
*121 _054_
*122 _055_
*123 _056_
*124 _057_
*125 _058_
*126 _059_
*127 _060_
*128 _061_
*129 _062_
*130 _063_
*131 _064_
*132 _065_
*133 clknet_0_clk
*134 clknet_2_0__leaf_clk
*135 clknet_2_1__leaf_clk
*136 clknet_2_2__leaf_clk
*137 clknet_2_3__leaf_clk
*138 net1
*139 net10
*140 net11
*141 net12
*142 net13
*143 net14
*144 net15
*145 net16
*146 net17
*147 net18
*148 net19
*149 net2
*150 net20
*151 net21
*152 net22
*153 net23
*154 net24
*155 net25
*156 net26
*157 net27
*158 net28
*159 net29
*160 net3
*161 net30
*162 net31
*163 net32
*164 net33
*165 net34
*166 net35
*167 net38
*168 net39
*169 net4
*170 net40
*171 net41
*172 net42
*173 net43
*174 net44
*175 net45
*176 net46
*177 net47
*178 net48
*179 net49
*180 net5
*181 net50
*182 net51
*183 net52
*184 net53
*185 net54
*186 net55
*187 net56
*188 net57
*189 net58
*190 net59
*191 net6
*192 net60
*193 net61
*194 net62
*195 net7
*196 net8
*197 net9
*198 FILLER_0_102
*199 FILLER_0_113
*200 FILLER_0_15
*201 FILLER_0_23
*202 FILLER_0_29
*203 FILLER_0_3
*204 FILLER_0_38
*205 FILLER_0_50
*206 FILLER_0_57
*207 FILLER_0_88
*208 FILLER_10_20
*209 FILLER_10_29
*210 FILLER_10_41
*211 FILLER_10_7
*212 FILLER_10_88
*213 FILLER_10_96
*214 FILLER_11_107
*215 FILLER_11_113
*216 FILLER_11_16
*217 FILLER_11_20
*218 FILLER_11_28
*219 FILLER_11_52
*220 FILLER_11_57
*221 FILLER_11_69
*222 FILLER_11_7
*223 FILLER_11_77
*224 FILLER_12_61
*225 FILLER_12_7
*226 FILLER_13_102
*227 FILLER_13_117
*228 FILLER_13_25
*229 FILLER_13_3
*230 FILLER_13_49
*231 FILLER_13_55
*232 FILLER_13_57
*233 FILLER_13_69
*234 FILLER_14_11
*235 FILLER_14_116
*236 FILLER_14_15
*237 FILLER_14_27
*238 FILLER_14_3
*239 FILLER_14_34
*240 FILLER_14_43
*241 FILLER_14_55
*242 FILLER_14_67
*243 FILLER_15_19
*244 FILLER_15_27
*245 FILLER_15_50
*246 FILLER_15_57
*247 FILLER_15_69
*248 FILLER_15_7
*249 FILLER_15_77
*250 FILLER_15_83
*251 FILLER_16_15
*252 FILLER_16_27
*253 FILLER_16_29
*254 FILLER_16_3
*255 FILLER_16_37
*256 FILLER_16_68
*257 FILLER_16_80
*258 FILLER_16_92
*259 FILLER_17_113
*260 FILLER_17_15
*261 FILLER_17_3
*262 FILLER_17_41
*263 FILLER_17_55
*264 FILLER_17_77
*265 FILLER_18_108
*266 FILLER_18_117
*267 FILLER_18_15
*268 FILLER_18_27
*269 FILLER_18_29
*270 FILLER_18_3
*271 FILLER_18_37
*272 FILLER_18_49
*273 FILLER_18_68
*274 FILLER_18_80
*275 FILLER_18_85
*276 FILLER_18_89
*277 FILLER_18_93
*278 FILLER_19_113
*279 FILLER_19_15
*280 FILLER_19_27
*281 FILLER_19_29
*282 FILLER_19_3
*283 FILLER_19_35
*284 FILLER_19_51
*285 FILLER_19_57
*286 FILLER_19_63
*287 FILLER_19_75
*288 FILLER_19_83
*289 FILLER_19_85
*290 FILLER_1_116
*291 FILLER_1_16
*292 FILLER_1_3
*293 FILLER_1_39
*294 FILLER_1_55
*295 FILLER_1_70
*296 FILLER_1_91
*297 FILLER_2_113
*298 FILLER_2_3
*299 FILLER_2_32
*300 FILLER_2_7
*301 FILLER_2_78
*302 FILLER_2_82
*303 FILLER_2_85
*304 FILLER_3_111
*305 FILLER_3_113
*306 FILLER_3_3
*307 FILLER_3_45
*308 FILLER_3_65
*309 FILLER_3_82
*310 FILLER_4_15
*311 FILLER_4_3
*312 FILLER_4_81
*313 FILLER_5_11
*314 FILLER_5_25
*315 FILLER_5_3
*316 FILLER_5_35
*317 FILLER_5_43
*318 FILLER_5_52
*319 FILLER_5_65
*320 FILLER_5_73
*321 FILLER_6_103
*322 FILLER_6_7
*323 FILLER_6_80
*324 FILLER_7_117
*325 FILLER_7_14
*326 FILLER_7_34
*327 FILLER_7_40
*328 FILLER_7_46
*329 FILLER_7_54
*330 FILLER_7_57
*331 FILLER_7_69
*332 FILLER_7_7
*333 FILLER_7_81
*334 FILLER_8_116
*335 FILLER_8_13
*336 FILLER_8_25
*337 FILLER_8_29
*338 FILLER_8_3
*339 FILLER_8_41
*340 FILLER_8_53
*341 FILLER_8_72
*342 FILLER_8_92
*343 FILLER_9_117
*344 FILLER_9_27
*345 FILLER_9_3
*346 FILLER_9_39
*347 FILLER_9_51
*348 FILLER_9_55
*349 FILLER_9_57
*350 FILLER_9_63
*351 FILLER_9_95
*352 MIPSpipeline_36
*353 MIPSpipeline_37
*354 PHY_EDGE_ROW_0_Left_20
*355 PHY_EDGE_ROW_0_Right_0
*356 PHY_EDGE_ROW_10_Left_30
*357 PHY_EDGE_ROW_10_Right_10
*358 PHY_EDGE_ROW_11_Left_31
*359 PHY_EDGE_ROW_11_Right_11
*360 PHY_EDGE_ROW_12_Left_32
*361 PHY_EDGE_ROW_12_Right_12
*362 PHY_EDGE_ROW_13_Left_33
*363 PHY_EDGE_ROW_13_Right_13
*364 PHY_EDGE_ROW_14_Left_34
*365 PHY_EDGE_ROW_14_Right_14
*366 PHY_EDGE_ROW_15_Left_35
*367 PHY_EDGE_ROW_15_Right_15
*368 PHY_EDGE_ROW_16_Left_36
*369 PHY_EDGE_ROW_16_Right_16
*370 PHY_EDGE_ROW_17_Left_37
*371 PHY_EDGE_ROW_17_Right_17
*372 PHY_EDGE_ROW_18_Left_38
*373 PHY_EDGE_ROW_18_Right_18
*374 PHY_EDGE_ROW_19_Left_39
*375 PHY_EDGE_ROW_19_Right_19
*376 PHY_EDGE_ROW_1_Left_21
*377 PHY_EDGE_ROW_1_Right_1
*378 PHY_EDGE_ROW_2_Left_22
*379 PHY_EDGE_ROW_2_Right_2
*380 PHY_EDGE_ROW_3_Left_23
*381 PHY_EDGE_ROW_3_Right_3
*382 PHY_EDGE_ROW_4_Left_24
*383 PHY_EDGE_ROW_4_Right_4
*384 PHY_EDGE_ROW_5_Left_25
*385 PHY_EDGE_ROW_5_Right_5
*386 PHY_EDGE_ROW_6_Left_26
*387 PHY_EDGE_ROW_6_Right_6
*388 PHY_EDGE_ROW_7_Left_27
*389 PHY_EDGE_ROW_7_Right_7
*390 PHY_EDGE_ROW_8_Left_28
*391 PHY_EDGE_ROW_8_Right_8
*392 PHY_EDGE_ROW_9_Left_29
*393 PHY_EDGE_ROW_9_Right_9
*394 TAP_TAPCELL_ROW_0_40
*395 TAP_TAPCELL_ROW_0_41
*396 TAP_TAPCELL_ROW_0_42
*397 TAP_TAPCELL_ROW_0_43
*398 TAP_TAPCELL_ROW_10_62
*399 TAP_TAPCELL_ROW_10_63
*400 TAP_TAPCELL_ROW_11_64
*401 TAP_TAPCELL_ROW_11_65
*402 TAP_TAPCELL_ROW_12_66
*403 TAP_TAPCELL_ROW_12_67
*404 TAP_TAPCELL_ROW_13_68
*405 TAP_TAPCELL_ROW_13_69
*406 TAP_TAPCELL_ROW_14_70
*407 TAP_TAPCELL_ROW_14_71
*408 TAP_TAPCELL_ROW_15_72
*409 TAP_TAPCELL_ROW_15_73
*410 TAP_TAPCELL_ROW_16_74
*411 TAP_TAPCELL_ROW_16_75
*412 TAP_TAPCELL_ROW_17_76
*413 TAP_TAPCELL_ROW_17_77
*414 TAP_TAPCELL_ROW_18_78
*415 TAP_TAPCELL_ROW_18_79
*416 TAP_TAPCELL_ROW_19_80
*417 TAP_TAPCELL_ROW_19_81
*418 TAP_TAPCELL_ROW_19_82
*419 TAP_TAPCELL_ROW_19_83
*420 TAP_TAPCELL_ROW_1_44
*421 TAP_TAPCELL_ROW_1_45
*422 TAP_TAPCELL_ROW_2_46
*423 TAP_TAPCELL_ROW_2_47
*424 TAP_TAPCELL_ROW_3_48
*425 TAP_TAPCELL_ROW_3_49
*426 TAP_TAPCELL_ROW_4_50
*427 TAP_TAPCELL_ROW_4_51
*428 TAP_TAPCELL_ROW_5_52
*429 TAP_TAPCELL_ROW_5_53
*430 TAP_TAPCELL_ROW_6_54
*431 TAP_TAPCELL_ROW_6_55
*432 TAP_TAPCELL_ROW_7_56
*433 TAP_TAPCELL_ROW_7_57
*434 TAP_TAPCELL_ROW_8_58
*435 TAP_TAPCELL_ROW_8_59
*436 TAP_TAPCELL_ROW_9_60
*437 TAP_TAPCELL_ROW_9_61
*438 _066_
*439 _067_
*440 _068_
*441 _069_
*442 _070_
*443 _071_
*444 _072_
*445 _073_
*446 _074_
*447 _075_
*448 _076_
*449 _077_
*450 _078_
*451 _079_
*452 _080_
*453 _081_
*454 _082_
*455 _083_
*456 _084_
*457 _085_
*458 _086_
*459 _087_
*460 _088_
*461 _089_
*462 _090_
*463 _091_
*464 _092_
*465 _093_
*466 _094_
*467 _095_
*468 _096_
*469 _097_
*470 _098_
*471 _099_
*472 _100_
*473 _101_
*474 _102_
*475 _103_
*476 _104_
*477 _105_
*478 _106_
*479 _107_
*480 _108_
*481 _109_
*482 _110_
*483 _111_
*484 _112_
*485 _113_
*486 _114_
*487 _115_
*488 _116_
*489 _117_
*490 _118_
*491 _119_
*492 _120_
*493 _121_
*494 _122_
*495 _123_
*496 _124_
*497 _125_
*498 _126_
*499 _127_
*500 _128_
*501 _129_
*502 _130_
*503 _131_
*504 _132_
*505 _133_
*506 _134_
*507 _135_
*508 _136_
*509 _137_
*510 _138_
*511 _139_
*512 _140_
*513 _141_
*514 _142_
*515 _143_
*516 _144_
*517 _145_
*518 _146_
*519 _147_
*520 _148_
*521 _149_
*522 _150_
*523 _151_
*524 _152_
*525 _153_
*526 _154_
*527 _155_
*528 _156_
*529 _157_
*530 _158_
*531 _159_
*532 _160_
*533 _161_
*534 _162_
*535 _163_
*536 _164_
*537 _165_
*538 _166_
*539 _167_
*540 _168_
*541 _169_
*542 _170_
*543 _171_
*544 _172_
*545 _173_
*546 _174_
*547 _175_
*548 _176_
*549 _177_
*550 _178_
*551 _179_
*552 _180_
*553 _181_
*554 _182_
*555 _183_
*556 _184_
*557 _185_
*558 _186_
*559 _187_
*560 _188_
*561 _189_
*562 _190_
*563 _191_
*564 clkbuf_0_clk
*565 clkbuf_2_0__f_clk
*566 clkbuf_2_1__f_clk
*567 clkbuf_2_2__f_clk
*568 clkbuf_2_3__f_clk
*569 clkload0
*570 clkload1
*571 clkload2
*572 fanout32
*573 fanout33
*574 fanout34
*575 fanout35
*576 hold1
*577 hold10
*578 hold11
*579 hold12
*580 hold13
*581 hold14
*582 hold15
*583 hold16
*584 hold17
*585 hold18
*586 hold19
*587 hold2
*588 hold20
*589 hold21
*590 hold22
*591 hold23
*592 hold24
*593 hold25
*594 hold3
*595 hold4
*596 hold5
*597 hold6
*598 hold7
*599 hold8
*600 hold9
*601 input1
*602 output10
*603 output11
*604 output12
*605 output13
*606 output14
*607 output15
*608 output16
*609 output17
*610 output18
*611 output19
*612 output2
*613 output20
*614 output21
*615 output22
*616 output23
*617 output24
*618 output25
*619 output26
*620 output27
*621 output28
*622 output29
*623 output3
*624 output30
*625 output31
*626 output4
*627 output5
*628 output6
*629 output7
*630 output8
*631 output9

*PORTS
clk I
current_pc[0] O
current_pc[10] O
current_pc[11] O
current_pc[12] O
current_pc[13] O
current_pc[14] O
current_pc[15] O
current_pc[16] O
current_pc[17] O
current_pc[18] O
current_pc[19] O
current_pc[1] O
current_pc[20] O
current_pc[21] O
current_pc[22] O
current_pc[23] O
current_pc[24] O
current_pc[25] O
current_pc[26] O
current_pc[27] O
current_pc[28] O
current_pc[29] O
current_pc[2] O
current_pc[30] O
current_pc[31] O
current_pc[3] O
current_pc[4] O
current_pc[5] O
current_pc[6] O
current_pc[7] O
current_pc[8] O
current_pc[9] O
reset I

*D_NET *3 0.00505962
*CONN
*P clk I
*I *564:A I *D sky130_fd_sc_hd__clkbuf_16
*CAP
1 clk 0.00218258
2 *564:A 0.00218258
3 *564:A *439:A 3.57491e-05
4 *564:A *131:10 6.13951e-05
5 *564:A *131:20 4.11714e-05
6 *564:A *136:10 0.000112284
7 *564:A *136:76 0.000433743
8 *564:A *159:67 1.01155e-05
*RES
1 clk *564:A 24.5198 
*END

*D_NET *4 0.000613129
*CONN
*P current_pc[0] O
*I *352:LO O *D sky130_fd_sc_hd__conb_1
*CAP
1 current_pc[0] 0.000277883
2 *352:LO 0.000277883
3 current_pc[0] current_pc[30] 5.73623e-05
*RES
1 *352:LO current_pc[0] 5.80677 
*END

*D_NET *5 0.00073366
*CONN
*P current_pc[10] O
*I *612:X O *D sky130_fd_sc_hd__buf_2
*CAP
1 current_pc[10] 0.000356144
2 *612:X 0.000356144
3 current_pc[10] current_pc[11] 2.13716e-05
*RES
1 *612:X current_pc[10] 7.6893 
*END

*D_NET *6 0.000673823
*CONN
*P current_pc[11] O
*I *623:X O *D sky130_fd_sc_hd__buf_2
*CAP
1 current_pc[11] 0.000326226
2 *623:X 0.000326226
3 current_pc[10] current_pc[11] 2.13716e-05
*RES
1 *623:X current_pc[11] 7.1793 
*END

*D_NET *7 0.000810701
*CONN
*P current_pc[12] O
*I *626:X O *D sky130_fd_sc_hd__buf_2
*CAP
1 current_pc[12] 0.000401986
2 *626:X 0.000401986
3 current_pc[12] current_pc[13] 0
4 current_pc[12] *626:A 6.72833e-06
*RES
1 *626:X current_pc[12] 10.185 
*END

*D_NET *8 0.000823937
*CONN
*P current_pc[13] O
*I *627:X O *D sky130_fd_sc_hd__buf_2
*CAP
1 current_pc[13] 0.000411968
2 *627:X 0.000411968
3 current_pc[12] current_pc[13] 0
*RES
1 *627:X current_pc[13] 10.185 
*END

*D_NET *9 0.000836699
*CONN
*P current_pc[14] O
*I *628:X O *D sky130_fd_sc_hd__buf_2
*CAP
1 current_pc[14] 0.000415996
2 *628:X 0.000415996
3 current_pc[14] *191:22 4.7072e-06
*RES
1 *628:X current_pc[14] 10.185 
*END

*D_NET *10 0.000764818
*CONN
*P current_pc[15] O
*I *629:X O *D sky130_fd_sc_hd__buf_2
*CAP
1 current_pc[15] 0.000382409
2 *629:X 0.000382409
3 current_pc[15] current_pc[17] 0
*RES
1 *629:X current_pc[15] 10.29 
*END

*D_NET *11 0.000842986
*CONN
*P current_pc[16] O
*I *630:X O *D sky130_fd_sc_hd__buf_2
*CAP
1 current_pc[16] 0.00039703
2 *630:X 0.00039703
3 current_pc[16] current_pc[17] 0
4 current_pc[16] *517:A 4.89254e-05
*RES
1 *630:X current_pc[16] 10.185 
*END

*D_NET *12 0.000814761
*CONN
*P current_pc[17] O
*I *631:X O *D sky130_fd_sc_hd__buf_2
*CAP
1 current_pc[17] 0.000393142
2 *631:X 0.000393142
3 current_pc[17] *630:A 2.17489e-05
4 current_pc[17] *631:A 6.72833e-06
5 current_pc[15] current_pc[17] 0
6 current_pc[16] current_pc[17] 0
*RES
1 *631:X current_pc[17] 10.185 
*END

*D_NET *13 0.000995878
*CONN
*P current_pc[18] O
*I *602:X O *D sky130_fd_sc_hd__buf_2
*CAP
1 current_pc[18] 0.000426873
2 *602:X 0.000426873
3 current_pc[18] current_pc[19] 5.57049e-05
4 current_pc[18] current_pc[25] 0
5 current_pc[18] current_pc[27] 6.50623e-05
6 current_pc[18] *166:14 2.13642e-05
*RES
1 *602:X current_pc[18] 5.70637 
*END

*D_NET *14 0.00113923
*CONN
*P current_pc[19] O
*I *603:X O *D sky130_fd_sc_hd__buf_2
*CAP
1 current_pc[19] 0.000332516
2 *603:X 0.000332516
3 current_pc[19] current_pc[25] 7.41509e-05
4 current_pc[19] *491:D 0.000344345
5 current_pc[18] current_pc[19] 5.57049e-05
*RES
1 *603:X current_pc[19] 8.2535 
*END

*D_NET *15 0.00236274
*CONN
*P current_pc[1] O
*I *353:LO O *D sky130_fd_sc_hd__conb_1
*CAP
1 current_pc[1] 0.000885601
2 *353:LO 0.000885601
3 current_pc[1] current_pc[22] 0.000214224
4 current_pc[1] *487:A 0.000175041
5 current_pc[1] *525:A 4.88478e-05
6 current_pc[1] *555:D 4.66108e-05
7 current_pc[1] *555:RESET_B 5.9033e-05
8 current_pc[1] *590:A 4.77769e-05
*RES
1 *353:LO current_pc[1] 10.8692 
*END

*D_NET *16 0.00129176
*CONN
*P current_pc[20] O
*I *604:X O *D sky130_fd_sc_hd__buf_2
*CAP
1 current_pc[20] 0.000387112
2 *604:X 0.000387112
3 current_pc[20] current_pc[24] 5.15299e-05
4 current_pc[20] current_pc[25] 0.000102377
5 current_pc[20] *491:D 0.000353636
6 current_pc[20] *120:10 9.98943e-06
*RES
1 *604:X current_pc[20] 9.4985 
*END

*D_NET *17 0.000924865
*CONN
*P current_pc[21] O
*I *605:X O *D sky130_fd_sc_hd__buf_2
*CAP
1 current_pc[21] 0.000354555
2 *605:X 0.000354555
3 current_pc[21] current_pc[22] 0
4 current_pc[21] current_pc[23] 5.64835e-05
5 current_pc[21] current_pc[24] 5.86218e-05
6 current_pc[21] *488:B 7.0304e-05
7 current_pc[21] *144:23 3.03465e-05
*RES
1 *605:X current_pc[21] 7.39503 
*END

*D_NET *18 0.00203821
*CONN
*P current_pc[22] O
*I *606:X O *D sky130_fd_sc_hd__buf_2
*CAP
1 current_pc[22] 0.000741404
2 *606:X 0.000741404
3 current_pc[22] current_pc[23] 5.63673e-05
4 current_pc[22] *487:A 0.000100072
5 current_pc[22] *555:RESET_B 0.000101177
6 current_pc[22] *590:A 8.35614e-05
7 current_pc[1] current_pc[22] 0.000214224
8 current_pc[21] current_pc[22] 0
*RES
1 *606:X current_pc[22] 8.91117 
*END

*D_NET *19 0.00126955
*CONN
*P current_pc[23] O
*I *607:X O *D sky130_fd_sc_hd__buf_2
*CAP
1 current_pc[23] 0.00040509
2 *607:X 0.00040509
3 current_pc[23] *485:B1 0
4 current_pc[23] *144:23 0.000253522
5 current_pc[23] *144:38 9.29925e-05
6 current_pc[21] current_pc[23] 5.64835e-05
7 current_pc[22] current_pc[23] 5.63673e-05
*RES
1 *607:X current_pc[23] 9.21177 
*END

*D_NET *20 0.00075523
*CONN
*P current_pc[24] O
*I *608:X O *D sky130_fd_sc_hd__buf_2
*CAP
1 current_pc[24] 0.000318558
2 *608:X 0.000318558
3 current_pc[24] *120:10 7.96104e-06
4 current_pc[20] current_pc[24] 5.15299e-05
5 current_pc[21] current_pc[24] 5.86218e-05
*RES
1 *608:X current_pc[24] 6.33177 
*END

*D_NET *21 0.00105928
*CONN
*P current_pc[25] O
*I *609:X O *D sky130_fd_sc_hd__buf_2
*CAP
1 current_pc[25] 0.000429537
2 *609:X 0.000429537
3 current_pc[25] *491:D 2.36783e-05
4 current_pc[25] *602:A 0
5 current_pc[18] current_pc[25] 0
6 current_pc[19] current_pc[25] 7.41509e-05
7 current_pc[20] current_pc[25] 0.000102377
*RES
1 *609:X current_pc[25] 8.41503 
*END

*D_NET *22 0.00162614
*CONN
*P current_pc[26] O
*I *610:X O *D sky130_fd_sc_hd__buf_2
*CAP
1 current_pc[26] 0.000480794
2 *610:X 0.000480794
3 current_pc[26] current_pc[27] 6.50623e-05
4 current_pc[26] current_pc[28] 0.000133622
5 current_pc[26] *494:A1 9.21064e-05
6 current_pc[26] *601:A 1.83975e-05
7 current_pc[26] *148:14 0.000355364
*RES
1 *610:X current_pc[26] 10.455 
*END

*D_NET *23 0.000876158
*CONN
*P current_pc[27] O
*I *611:X O *D sky130_fd_sc_hd__buf_2
*CAP
1 current_pc[27] 0.00029801
2 *611:X 0.00029801
3 current_pc[27] *148:36 0.000150014
4 current_pc[18] current_pc[27] 6.50623e-05
5 current_pc[26] current_pc[27] 6.50623e-05
*RES
1 *611:X current_pc[27] 6.72003 
*END

*D_NET *24 0.00147127
*CONN
*P current_pc[28] O
*I *613:X O *D sky130_fd_sc_hd__buf_2
*CAP
1 current_pc[28] 0.00038305
2 *613:X 0.00038305
3 current_pc[28] *572:A 0.000155615
4 current_pc[28] *601:A 9.09048e-05
5 current_pc[28] *610:A 8.52883e-05
6 current_pc[28] *148:14 0.000145711
7 current_pc[28] *166:77 9.40292e-05
8 current_pc[26] current_pc[28] 0.000133622
*RES
1 *613:X current_pc[28] 10.1135 
*END

*D_NET *25 0.000733019
*CONN
*P current_pc[29] O
*I *614:X O *D sky130_fd_sc_hd__buf_2
*CAP
1 current_pc[29] 0.000287058
2 *614:X 0.000287058
3 current_pc[29] current_pc[30] 6.79567e-05
4 current_pc[29] *601:A 9.09458e-05
*RES
1 *614:X current_pc[29] 5.4733 
*END

*D_NET *26 0.000954935
*CONN
*P current_pc[2] O
*I *615:X O *D sky130_fd_sc_hd__buf_2
*CAP
1 current_pc[2] 0.000477468
2 *615:X 0.000477468
*RES
1 *615:X current_pc[2] 11.82 
*END

*D_NET *27 0.000634694
*CONN
*P current_pc[30] O
*I *616:X O *D sky130_fd_sc_hd__buf_2
*CAP
1 current_pc[30] 0.000243568
2 *616:X 0.000243568
3 current_pc[30] *601:A 2.22382e-05
4 current_pc[0] current_pc[30] 5.73623e-05
5 current_pc[29] current_pc[30] 6.79567e-05
*RES
1 *616:X current_pc[30] 5.2183 
*END

*D_NET *28 0.0018254
*CONN
*P current_pc[31] O
*I *617:X O *D sky130_fd_sc_hd__buf_2
*CAP
1 current_pc[31] 0.000681617
2 *617:X 0.000681617
3 current_pc[31] *504:A 0.000160338
4 current_pc[31] *533:A 0.000301829
*RES
1 *617:X current_pc[31] 14.325 
*END

*D_NET *29 0.000904172
*CONN
*P current_pc[3] O
*I *618:X O *D sky130_fd_sc_hd__buf_2
*CAP
1 current_pc[3] 0.000452086
2 *618:X 0.000452086
*RES
1 *618:X current_pc[3] 11.715 
*END

*D_NET *30 0.000961064
*CONN
*P current_pc[4] O
*I *619:X O *D sky130_fd_sc_hd__buf_2
*CAP
1 current_pc[4] 0.000480532
2 *619:X 0.000480532
*RES
1 *619:X current_pc[4] 12.06 
*END

*D_NET *31 0.000980329
*CONN
*P current_pc[5] O
*I *620:X O *D sky130_fd_sc_hd__buf_2
*CAP
1 current_pc[5] 0.000490164
2 *620:X 0.000490164
*RES
1 *620:X current_pc[5] 12.06 
*END

*D_NET *32 0.00107501
*CONN
*P current_pc[6] O
*I *621:X O *D sky130_fd_sc_hd__buf_2
*CAP
1 current_pc[6] 0.000523015
2 *621:X 0.000523015
3 current_pc[6] current_pc[7] 2.89767e-05
4 current_pc[6] *538:D 0
*RES
1 *621:X current_pc[6] 10.7493 
*END

*D_NET *33 0.000648266
*CONN
*P current_pc[7] O
*I *622:X O *D sky130_fd_sc_hd__buf_2
*CAP
1 current_pc[7] 0.000277858
2 *622:X 0.000277858
3 current_pc[7] current_pc[8] 1.57976e-05
4 current_pc[7] *136:18 4.77757e-05
5 current_pc[6] current_pc[7] 2.89767e-05
*RES
1 *622:X current_pc[7] 7.1793 
*END

*D_NET *34 0.000726929
*CONN
*P current_pc[8] O
*I *624:X O *D sky130_fd_sc_hd__buf_2
*CAP
1 current_pc[8] 0.000342494
2 *624:X 0.000342494
3 current_pc[8] current_pc[9] 2.6144e-05
4 current_pc[8] *541:CLK 0
5 current_pc[7] current_pc[8] 1.57976e-05
*RES
1 *624:X current_pc[8] 7.9443 
*END

*D_NET *35 0.000687287
*CONN
*P current_pc[9] O
*I *625:X O *D sky130_fd_sc_hd__buf_2
*CAP
1 current_pc[9] 0.000330572
2 *625:X 0.000330572
3 current_pc[8] current_pc[9] 2.6144e-05
*RES
1 *625:X current_pc[9] 7.1793 
*END

*D_NET *36 0.00158783
*CONN
*P reset I
*I *601:A I *D sky130_fd_sc_hd__clkbuf_1
*CAP
1 reset 0.0006238
2 *601:A 0.0006238
3 *601:A *572:A 0.00011774
4 current_pc[26] *601:A 1.83975e-05
5 current_pc[28] *601:A 9.09048e-05
6 current_pc[29] *601:A 9.09458e-05
7 current_pc[30] *601:A 2.22382e-05
*RES
1 reset *601:A 12.6168 
*END

*D_NET *37 0.000356818
*CONN
*I *542:D I *D sky130_fd_sc_hd__dfrtp_1
*I *456:X O *D sky130_fd_sc_hd__xor2_1
*CAP
1 *542:D 0.000114805
2 *456:X 0.000114805
3 *542:D *456:A 4.77769e-05
4 *542:D *456:B 7.98745e-06
5 *542:D *542:CLK 7.14438e-05
*RES
1 *456:X *542:D 9.54 
*END

*D_NET *38 0.00152583
*CONN
*I *543:D I *D sky130_fd_sc_hd__dfrtp_1
*I *459:X O *D sky130_fd_sc_hd__and2b_1
*CAP
1 *543:D 0.000531975
2 *459:X 0.000531975
3 *543:D *458:A2 0.000112595
4 *543:D *459:B 0.000114016
5 *543:D *542:RESET_B 2.20753e-05
6 *543:D *149:10 0.000106333
7 *543:D *160:16 8.91005e-05
8 *543:D *160:36 1.77595e-05
*RES
1 *459:X *543:D 16.62 
*END

*D_NET *39 0.00038649
*CONN
*I *544:D I *D sky130_fd_sc_hd__dfrtp_1
*I *461:X O *D sky130_fd_sc_hd__xor2_1
*CAP
1 *544:D 0.000138099
2 *461:X 0.000138099
3 *544:D *545:CLK 0.000110291
*RES
1 *461:X *544:D 9.885 
*END

*D_NET *40 0.00105882
*CONN
*I *545:D I *D sky130_fd_sc_hd__dfrtp_1
*I *464:X O *D sky130_fd_sc_hd__xor2_1
*CAP
1 *545:D 0.00024375
2 *464:X 0.00024375
3 *545:D *461:A 0.000240895
4 *545:D *461:B 0.000242183
5 *545:D *545:CLK 8.82446e-05
*RES
1 *464:X *545:D 12.3 
*END

*D_NET *41 0.000645698
*CONN
*I *546:D I *D sky130_fd_sc_hd__dfrtp_1
*I *466:X O *D sky130_fd_sc_hd__xor2_1
*CAP
1 *546:D 0.000204863
2 *466:X 0.000204863
3 *546:D *627:A 7.56066e-05
4 *546:D *134:62 6.80075e-05
5 *546:D *180:21 9.23578e-05
*RES
1 *466:X *546:D 11.025 
*END

*D_NET *42 0.000698674
*CONN
*I *547:D I *D sky130_fd_sc_hd__dfrtp_1
*I *468:Y O *D sky130_fd_sc_hd__xnor2_1
*CAP
1 *547:D 0.000223447
2 *468:Y 0.000223447
3 *547:D *467:A 2.56752e-06
4 *547:D *468:B 4.77769e-05
5 *547:D *469:A 1.67904e-05
6 *547:D *469:B 9.05592e-05
7 *547:D *471:B 4.36422e-06
8 *547:D *108:8 2.79092e-06
9 *547:D *191:22 3.91549e-05
10 *547:D *191:46 4.77757e-05
*RES
1 *468:Y *547:D 10.95 
*END

*D_NET *43 0.000387039
*CONN
*I *548:D I *D sky130_fd_sc_hd__dfrtp_1
*I *470:X O *D sky130_fd_sc_hd__xor2_1
*CAP
1 *548:D 7.07206e-05
2 *470:X 7.07206e-05
3 *548:D *470:A 1.32102e-05
4 *548:D *548:CLK 7.48041e-05
5 *548:D *565:A 1.08758e-05
6 *548:D *566:A 0.000146708
*RES
1 *470:X *548:D 5.51 
*END

*D_NET *44 0.000603156
*CONN
*I *549:D I *D sky130_fd_sc_hd__dfrtp_1
*I *473:X O *D sky130_fd_sc_hd__o21ba_1
*CAP
1 *549:D 0.000202081
2 *473:X 0.000202081
3 *549:D *111:6 0.000198994
*RES
1 *473:X *549:D 10.155 
*END

*D_NET *45 0.000338011
*CONN
*I *550:D I *D sky130_fd_sc_hd__dfrtp_1
*I *474:X O *D sky130_fd_sc_hd__xor2_1
*CAP
1 *550:D 0.000143534
2 *474:X 0.000143534
3 *550:D *111:23 5.09431e-05
*RES
1 *474:X *550:D 9.375 
*END

*D_NET *46 0.0003955
*CONN
*I *551:D I *D sky130_fd_sc_hd__dfrtp_1
*I *477:Y O *D sky130_fd_sc_hd__nor2_1
*CAP
1 *551:D 0.000174025
2 *477:Y 0.000174025
3 *551:D *477:B 3.26519e-06
4 *551:D *137:63 4.41857e-05
*RES
1 *477:Y *551:D 9.72 
*END

*D_NET *47 0.000961503
*CONN
*I *552:D I *D sky130_fd_sc_hd__dfrtp_1
*I *480:Y O *D sky130_fd_sc_hd__nor2_1
*CAP
1 *552:D 0.00040376
2 *480:Y 0.00040376
3 *552:D *480:B 4.89362e-05
4 *552:D *137:61 4.63004e-05
5 *552:D *137:63 5.87474e-05
*RES
1 *480:Y *552:D 13.14 
*END

*D_NET *48 0.000295541
*CONN
*I *553:D I *D sky130_fd_sc_hd__dfrtp_1
*I *483:X O *D sky130_fd_sc_hd__o21ba_1
*CAP
1 *553:D 0.000147771
2 *483:X 0.000147771
3 *553:D *141:10 0
*RES
1 *483:X *553:D 9.39 
*END

*D_NET *49 0.00035068
*CONN
*I *554:D I *D sky130_fd_sc_hd__dfrtp_1
*I *484:X O *D sky130_fd_sc_hd__xor2_1
*CAP
1 *554:D 0.000149869
2 *484:X 0.000149869
3 *554:D *483:B1_N 5.09431e-05
*RES
1 *484:X *554:D 9.375 
*END

*D_NET *50 0.00127951
*CONN
*I *555:D I *D sky130_fd_sc_hd__dfrtp_1
*I *487:Y O *D sky130_fd_sc_hd__nor2_1
*CAP
1 *555:D 0.000396483
2 *487:Y 0.000396483
3 *555:D *484:A 0.000114518
4 *555:D *487:B 0.000111293
5 *555:D *525:A 1.0397e-05
6 *555:D *555:CLK 1.14169e-05
7 *555:D *606:A 7.90871e-05
8 *555:D *117:60 0.000113222
9 current_pc[1] *555:D 4.66108e-05
*RES
1 *487:Y *555:D 14.355 
*END

*D_NET *51 0.00174869
*CONN
*I *556:D I *D sky130_fd_sc_hd__dfrtp_1
*I *489:X O *D sky130_fd_sc_hd__o2bb2a_1
*CAP
1 *556:D 0.000592739
2 *489:X 0.000592739
3 *556:D *486:B 0.000121643
4 *556:D *489:B1 0.000121643
5 *556:D *556:CLK 2.68464e-05
6 *556:D *606:A 2.12738e-05
7 *556:D *117:18 0.000121961
8 *556:D *143:14 0.000149842
*RES
1 *489:X *556:D 17.94 
*END

*D_NET *52 0.001553
*CONN
*I *557:D I *D sky130_fd_sc_hd__dfrtp_1
*I *492:Y O *D sky130_fd_sc_hd__nor2_1
*CAP
1 *557:D 0.000377215
2 *492:Y 0.000377215
3 *557:D *476:C 9.08126e-05
4 *557:D *482:B 0.000137164
5 *557:D *491:B 0.000195297
6 *557:D *492:A 0
7 *557:D *521:A 0.000109489
8 *557:D *557:CLK 2.10214e-05
9 *557:D *139:52 1.12156e-05
10 *557:D *165:16 0
11 *557:D *166:29 0.000233568
*RES
1 *492:Y *557:D 14.37 
*END

*D_NET *53 0.00144622
*CONN
*I *558:D I *D sky130_fd_sc_hd__dfrtp_1
*I *493:X O *D sky130_fd_sc_hd__xor2_1
*CAP
1 *558:D 0.000472195
2 *493:X 0.000472195
3 *558:D *493:A 0.000114518
4 *558:D *520:A 0.000352254
5 *558:D *558:RESET_B 3.50571e-05
*RES
1 *493:X *558:D 16.545 
*END

*D_NET *54 0.00116784
*CONN
*I *559:D I *D sky130_fd_sc_hd__dfrtp_1
*I *496:Y O *D sky130_fd_sc_hd__nor2_1
*CAP
1 *559:D 0.000372738
2 *496:Y 0.000372738
3 *559:D *559:CLK 6.29387e-05
4 *559:D *560:D 6.90254e-05
5 *559:D *122:44 2.68526e-05
6 *559:D *135:45 4.83032e-05
7 *559:D *135:88 9.30492e-05
8 *559:D *147:31 0.000122194
*RES
1 *496:Y *559:D 13.995 
*END

*D_NET *55 0.000486795
*CONN
*I *560:D I *D sky130_fd_sc_hd__dfrtp_1
*I *498:X O *D sky130_fd_sc_hd__xor2_1
*CAP
1 *560:D 0.000143186
2 *498:X 0.000143186
3 *560:D *496:A 4.77807e-05
4 *560:D *560:CLK 1.45925e-05
5 *560:D *135:88 6.90254e-05
6 *559:D *560:D 6.90254e-05
*RES
1 *498:X *560:D 9.36375 
*END

*D_NET *56 0.00147918
*CONN
*I *561:D I *D sky130_fd_sc_hd__dfrtp_1
*I *501:Y O *D sky130_fd_sc_hd__nor2_1
*CAP
1 *561:D 0.000310392
2 *501:Y 0.000310392
3 *561:D *496:B 4.41506e-05
4 *561:D *501:A 0.000297111
5 *561:D *503:B 8.73389e-06
6 *561:D *561:CLK 5.83121e-06
7 *561:D *135:10 0.000381646
8 *561:D *135:16 5.05981e-05
9 *561:D *135:45 7.03276e-05
*RES
1 *501:Y *561:D 14.415 
*END

*D_NET *57 0.000995776
*CONN
*I *534:D I *D sky130_fd_sc_hd__dfrtp_1
*I *438:Y O *D sky130_fd_sc_hd__inv_2
*CAP
1 *534:D 0.000458602
2 *438:Y 0.000458602
3 *534:D *534:RESET_B 7.01359e-05
4 *534:D *131:10 8.43478e-06
*RES
1 *438:Y *534:D 12.435 
*END

*D_NET *58 0.000596195
*CONN
*I *562:D I *D sky130_fd_sc_hd__dfrtp_1
*I *503:X O *D sky130_fd_sc_hd__xor2_1
*CAP
1 *562:D 0.000209656
2 *503:X 0.000209656
3 *562:D *503:B 1.52532e-05
4 *562:D *561:CLK 4.88478e-05
5 *562:D *135:16 0.000112783
*RES
1 *503:X *562:D 10.845 
*END

*D_NET *59 0.000511063
*CONN
*I *563:D I *D sky130_fd_sc_hd__dfrtp_1
*I *504:X O *D sky130_fd_sc_hd__xor2_1
*CAP
1 *563:D 0.000155869
2 *504:X 0.000155869
3 *563:D *517:A 0.000114649
4 *563:D *630:A 8.46767e-05
*RES
1 *504:X *563:D 9.72 
*END

*D_NET *60 0.00062204
*CONN
*I *535:D I *D sky130_fd_sc_hd__dfrtp_1
*I *442:X O *D sky130_fd_sc_hd__and2_1
*CAP
1 *535:D 0.000196147
2 *442:X 0.000196147
3 *535:D *535:RESET_B 0.000106892
4 *535:D *157:10 8.33066e-06
5 *535:D *157:21 0.000114524
*RES
1 *442:X *535:D 11.1 
*END

*D_NET *61 0.00178115
*CONN
*I *536:D I *D sky130_fd_sc_hd__dfrtp_1
*I *443:Y O *D sky130_fd_sc_hd__xnor2_1
*CAP
1 *536:D 0.000767279
2 *443:Y 0.000767279
3 *536:D *443:A 2.86975e-05
4 *536:D *536:RESET_B 5.18362e-05
5 *536:D *619:A 2.68464e-05
6 *536:D *620:A 2.49909e-05
7 *536:D *137:59 0.000114223
*RES
1 *443:Y *536:D 19.275 
*END

*D_NET *62 0.000682356
*CONN
*I *537:D I *D sky130_fd_sc_hd__dfrtp_1
*I *446:X O *D sky130_fd_sc_hd__and2b_1
*CAP
1 *537:D 0.000306668
2 *446:X 0.000306668
3 *537:D *446:B 4.88478e-05
4 *537:D *537:RESET_B 2.0172e-05
*RES
1 *446:X *537:D 12.225 
*END

*D_NET *63 0.00041647
*CONN
*I *538:D I *D sky130_fd_sc_hd__dfrtp_2
*I *447:X O *D sky130_fd_sc_hd__xor2_1
*CAP
1 *538:D 0.000204887
2 *447:X 0.000204887
3 *538:D *538:CLK 6.69608e-06
4 current_pc[6] *538:D 0
*RES
1 *447:X *538:D 10.23 
*END

*D_NET *64 0.00096979
*CONN
*I *539:D I *D sky130_fd_sc_hd__dfrtp_1
*I *450:X O *D sky130_fd_sc_hd__and2_1
*CAP
1 *539:D 0.000373076
2 *450:X 0.000373076
3 *539:D *451:B 9.12494e-06
4 *539:D *508:A 0.000123955
5 *539:D *538:RESET_B 9.05592e-05
*RES
1 *450:X *539:D 13.215 
*END

*D_NET *65 0.000328601
*CONN
*I *540:D I *D sky130_fd_sc_hd__dfrtp_1
*I *451:Y O *D sky130_fd_sc_hd__xnor2_1
*CAP
1 *540:D 6.64549e-05
2 *451:Y 6.64549e-05
3 *540:D *131:93 0.000114878
4 *540:D *161:8 8.08129e-05
*RES
1 *451:Y *540:D 5.39 
*END

*D_NET *66 0.000521999
*CONN
*I *541:D I *D sky130_fd_sc_hd__dfrtp_1
*I *455:X O *D sky130_fd_sc_hd__and2b_1
*CAP
1 *541:D 0.00018741
2 *455:X 0.00018741
3 *541:D *455:B 0.000147179
*RES
1 *455:X *541:D 10.275 
*END

*D_NET *67 0.000204239
*CONN
*I *534:RESET_B I *D sky130_fd_sc_hd__dfrtp_1
*I *439:Y O *D sky130_fd_sc_hd__inv_2
*CAP
1 *534:RESET_B 4.30263e-05
2 *439:Y 4.30263e-05
3 *534:RESET_B *439:A 4.80505e-05
4 *534:D *534:RESET_B 7.01359e-05
*RES
1 *439:Y *534:RESET_B 6.725 
*END

*D_NET *68 0.000673615
*CONN
*I *535:RESET_B I *D sky130_fd_sc_hd__dfrtp_1
*I *505:Y O *D sky130_fd_sc_hd__inv_2
*CAP
1 *535:RESET_B 0.000249267
2 *505:Y 0.000249267
3 *535:RESET_B *505:A 6.81888e-05
4 *535:D *535:RESET_B 0.000106892
*RES
1 *505:Y *535:RESET_B 6.0325 
*END

*D_NET *69 0.000164731
*CONN
*I *536:RESET_B I *D sky130_fd_sc_hd__dfrtp_1
*I *506:Y O *D sky130_fd_sc_hd__inv_2
*CAP
1 *536:RESET_B 3.98214e-05
2 *506:Y 3.98214e-05
3 *536:RESET_B *506:A 3.32517e-05
4 *536:D *536:RESET_B 5.18362e-05
*RES