*SPEF "ieee 1481-1999"
*DESIGN "MIPSpipeline"
*DATE "22:33:04 Monday September 15, 2025"
*VENDOR "The OpenROAD Project"
*PROGRAM "OpenROAD"
*VERSION "edf00dff99f6c40d67a30c0e22a8191c5d2ed9d6"
*DESIGN_FLOW "NAME_SCOPE LOCAL" "PIN_CAP NONE"
*DIVIDER /
*DELIMITER :
*BUS_DELIMITER []
*T_UNIT 1 NS
*C_UNIT 1 PF
*R_UNIT 1 OHM
*L_UNIT 1 HENRY

*NAME_MAP
*3 clk
*4 net36
*5 current_pc[10]
*6 current_pc[11]
*7 current_pc[12]
*8 current_pc[13]
*9 current_pc[14]
*10 current_pc[15]
*11 current_pc[16]
*12 current_pc[17]
*13 current_pc[18]
*14 current_pc[19]
*15 net37
*16 current_pc[20]
*17 current_pc[21]
*18 current_pc[22]
*19 current_pc[23]
*20 current_pc[24]
*21 current_pc[25]
*22 current_pc[26]
*23 current_pc[27]
*24 current_pc[28]
*25 current_pc[29]
*26 current_pc[2]
*27 current_pc[30]
*28 current_pc[31]
*29 current_pc[3]
*30 current_pc[4]
*31 current_pc[5]
*32 current_pc[6]
*33 current_pc[7]
*34 current_pc[8]
*35 current_pc[9]
*36 reset
*37 PC4\[10\]
*38 PC4\[11\]
*39 PC4\[12\]
*40 PC4\[13\]
*41 PC4\[14\]
*42 PC4\[15\]
*43 PC4\[16\]
*44 PC4\[17\]
*45 PC4\[18\]
*46 PC4\[19\]
*47 PC4\[20\]
*48 PC4\[21\]
*49 PC4\[22\]
*50 PC4\[23\]
*51 PC4\[24\]
*52 PC4\[25\]
*53 PC4\[26\]
*54 PC4\[27\]
*55 PC4\[28\]
*56 PC4\[29\]
*57 PC4\[2\]
*58 PC4\[30\]
*59 PC4\[31\]
*60 PC4\[3\]
*61 PC4\[4\]
*62 PC4\[5\]
*63 PC4\[6\]
*64 PC4\[7\]
*65 PC4\[8\]
*66 PC4\[9\]
*67 _000_
*68 _001_
*69 _002_
*70 _003_
*71 _004_
*72 _005_
*73 _006_
*74 _007_
*75 _008_
*76 _009_
*77 _010_
*78 _011_
*79 _012_
*80 _013_
*81 _014_
*82 _015_
*83 _016_
*84 _017_
*85 _018_
*86 _019_
*87 _020_
*88 _021_
*89 _022_
*90 _023_
*91 _024_
*92 _025_
*93 _026_
*94 _027_
*95 _028_
*96 _029_
*97 _030_
*98 _031_
*99 _032_
*100 _033_
*101 _034_
*102 _035_
*103 _036_
*104 _037_
*105 _038_
*106 _039_
*107 _040_
*108 _041_
*109 _042_
*110 _043_
*111 _044_
*112 _045_
*113 _046_
*114 _047_
*115 _048_
*116 _049_
*117 _050_
*118 _051_
*119 _052_
*120 _053_
*121 _054_
*122 _055_
*123 _056_
*124 _057_
*125 _058_
*126 _059_
*127 _060_
*128 _061_
*129 _062_
*130 _063_
*131 _064_
*132 _065_
*133 clknet_0_clk
*134 clknet_2_0__leaf_clk
*135 clknet_2_1__leaf_clk
*136 clknet_2_2__leaf_clk
*137 clknet_2_3__leaf_clk
*138 net1
*139 net10
*140 net11
*141 net12
*142 net13
*143 net14
*144 net15
*145 net16
*146 net17
*147 net18
*148 net19
*149 net2
*150 net20
*151 net21
*152 net22
*153 net23
*154 net24
*155 net25
*156 net26
*157 net27
*158 net28
*159 net29
*160 net3
*161 net30
*162 net31
*163 net32
*164 net33
*165 net34
*166 net35
*167 net38
*168 net39
*169 net4
*170 net40
*171 net41
*172 net42
*173 net43
*174 net44
*175 net45
*176 net46
*177 net47
*178 net48
*179 net49
*180 net5
*181 net50
*182 net51
*183 net52
*184 net53
*185 net54
*186 net55
*187 net56
*188 net57
*189 net58
*190 net59
*191 net6
*192 net60
*193 net61
*194 net62
*195 net7
*196 net8
*197 net9
*198 FILLER_0_102
*199 FILLER_0_113
*200 FILLER_0_15
*201 FILLER_0_23
*202 FILLER_0_29
*203 FILLER_0_3
*204 FILLER_0_38
*205 FILLER_0_50
*206 FILLER_0_57
*207 FILLER_0_88
*208 FILLER_10_20
*209 FILLER_10_29
*210 FILLER_10_41
*211 FILLER_10_7
*212 FILLER_10_88
*213 FILLER_10_96
*214 FILLER_11_107
*215 FILLER_11_113
*216 FILLER_11_16
*217 FILLER_11_20
*218 FILLER_11_28
*219 FILLER_11_52
*220 FILLER_11_57
*221 FILLER_11_69
*222 FILLER_11_7
*223 FILLER_11_77
*224 FILLER_12_61
*225 FILLER_12_7
*226 FILLER_13_102
*227 FILLER_13_117
*228 FILLER_13_25
*229 FILLER_13_3
*230 FILLER_13_49
*231 FILLER_13_55
*232 FILLER_13_57
*233 FILLER_13_69
*234 FILLER_14_11
*235 FILLER_14_116
*236 FILLER_14_15
*237 FILLER_14_27
*238 FILLER_14_3
*239 FILLER_14_34
*240 FILLER_14_43
*241 FILLER_14_55
*242 FILLER_14_67
*243 FILLER_15_19
*244 FILLER_15_27
*245 FILLER_15_50
*246 FILLER_15_57
*247 FILLER_15_69
*248 FILLER_15_7
*249 FILLER_15_77
*250 FILLER_15_83
*251 FILLER_16_15
*252 FILLER_16_27
*253 FILLER_16_29
*254 FILLER_16_3
*255 FILLER_16_37
*256 FILLER_16_68
*257 FILLER_16_80
*258 FILLER_16_92
*259 FILLER_17_113
*260 FILLER_17_15
*261 FILLER_17_3
*262 FILLER_17_41
*263 FILLER_17_55
*264 FILLER_17_77
*265 FILLER_18_108
*266 FILLER_18_117
*267 FILLER_18_15
*268 FILLER_18_27
*269 FILLER_18_29
*270 FILLER_18_3
*271 FILLER_18_37
*272 FILLER_18_49
*273 FILLER_18_68
*274 FILLER_18_80
*275 FILLER_18_85
*276 FILLER_18_89
*277 FILLER_18_93
*278 FILLER_19_113
*279 FILLER_19_15
*280 FILLER_19_27
*281 FILLER_19_29
*282 FILLER_19_3
*283 FILLER_19_35
*284 FILLER_19_51
*285 FILLER_19_57
*286 FILLER_19_63
*287 FILLER_19_75
*288 FILLER_19_83
*289 FILLER_19_85
*290 FILLER_1_116
*291 FILLER_1_16
*292 FILLER_1_3
*293 FILLER_1_39
*294 FILLER_1_55
*295 FILLER_1_70
*296 FILLER_1_91
*297 FILLER_2_113
*298 FILLER_2_3
*299 FILLER_2_32
*300 FILLER_2_7
*301 FILLER_2_78
*302 FILLER_2_82
*303 FILLER_2_85
*304 FILLER_3_111
*305 FILLER_3_113
*306 FILLER_3_3
*307 FILLER_3_45
*308 FILLER_3_65
*309 FILLER_3_82
*310 FILLER_4_15
*311 FILLER_4_3
*312 FILLER_4_81
*313 FILLER_5_11
*314 FILLER_5_25
*315 FILLER_5_3
*316 FILLER_5_35
*317 FILLER_5_43
*318 FILLER_5_52
*319 FILLER_5_65
*320 FILLER_5_73
*321 FILLER_6_103
*322 FILLER_6_7
*323 FILLER_6_80
*324 FILLER_7_117
*325 FILLER_7_14
*326 FILLER_7_34
*327 FILLER_7_40
*328 FILLER_7_46
*329 FILLER_7_54
*330 FILLER_7_57
*331 FILLER_7_69
*332 FILLER_7_7
*333 FILLER_7_81
*334 FILLER_8_116
*335 FILLER_8_13
*336 FILLER_8_25
*337 FILLER_8_29
*338 FILLER_8_3
*339 FILLER_8_41
*340 FILLER_8_53
*341 FILLER_8_72
*342 FILLER_8_92
*343 FILLER_9_117
*344 FILLER_9_27
*345 FILLER_9_3
*346 FILLER_9_39
*347 FILLER_9_51
*348 FILLER_9_55
*349 FILLER_9_57
*350 FILLER_9_63
*351 FILLER_9_95
*352 MIPSpipeline_36
*353 MIPSpipeline_37
*354 PHY_EDGE_ROW_0_Left_20
*355 PHY_EDGE_ROW_0_Right_0
*356 PHY_EDGE_ROW_10_Left_30
*357 PHY_EDGE_ROW_10_Right_10
*358 PHY_EDGE_ROW_11_Left_31
*359 PHY_EDGE_ROW_11_Right_11
*360 PHY_EDGE_ROW_12_Left_32
*361 PHY_EDGE_ROW_12_Right_12
*362 PHY_EDGE_ROW_13_Left_33
*363 PHY_EDGE_ROW_13_Right_13
*364 PHY_EDGE_ROW_14_Left_34
*365 PHY_EDGE_ROW_14_Right_14
*366 PHY_EDGE_ROW_15_Left_35
*367 PHY_EDGE_ROW_15_Right_15
*368 PHY_EDGE_ROW_16_Left_36
*369 PHY_EDGE_ROW_16_Right_16
*370 PHY_EDGE_ROW_17_Left_37
*371 PHY_EDGE_ROW_17_Right_17
*372 PHY_EDGE_ROW_18_Left_38
*373 PHY_EDGE_ROW_18_Right_18
*374 PHY_EDGE_ROW_19_Left_39
*375 PHY_EDGE_ROW_19_Right_19
*376 PHY_EDGE_ROW_1_Left_21
*377 PHY_EDGE_ROW_1_Right_1
*378 PHY_EDGE_ROW_2_Left_22
*379 PHY_EDGE_ROW_2_Right_2
*380 PHY_EDGE_ROW_3_Left_23
*381 PHY_EDGE_ROW_3_Right_3
*382 PHY_EDGE_ROW_4_Left_24
*383 PHY_EDGE_ROW_4_Right_4
*384 PHY_EDGE_ROW_5_Left_25
*385 PHY_EDGE_ROW_5_Right_5
*386 PHY_EDGE_ROW_6_Left_26
*387 PHY_EDGE_ROW_6_Right_6
*388 PHY_EDGE_ROW_7_Left_27
*389 PHY_EDGE_ROW_7_Right_7
*390 PHY_EDGE_ROW_8_Left_28
*391 PHY_EDGE_ROW_8_Right_8
*392 PHY_EDGE_ROW_9_Left_29
*393 PHY_EDGE_ROW_9_Right_9
*394 TAP_TAPCELL_ROW_0_40
*395 TAP_TAPCELL_ROW_0_41
*396 TAP_TAPCELL_ROW_0_42
*397 TAP_TAPCELL_ROW_0_43
*398 TAP_TAPCELL_ROW_10_62
*399 TAP_TAPCELL_ROW_10_63
*400 TAP_TAPCELL_ROW_11_64
*401 TAP_TAPCELL_ROW_11_65
*402 TAP_TAPCELL_ROW_12_66
*403 TAP_TAPCELL_ROW_12_67
*404 TAP_TAPCELL_ROW_13_68
*405 TAP_TAPCELL_ROW_13_69
*406 TAP_TAPCELL_ROW_14_70
*407 TAP_TAPCELL_ROW_14_71
*408 TAP_TAPCELL_ROW_15_72
*409 TAP_TAPCELL_ROW_15_73
*410 TAP_TAPCELL_ROW_16_74
*411 TAP_TAPCELL_ROW_16_75
*412 TAP_TAPCELL_ROW_17_76
*413 TAP_TAPCELL_ROW_17_77
*414 TAP_TAPCELL_ROW_18_78
*415 TAP_TAPCELL_ROW_18_79
*416 TAP_TAPCELL_ROW_19_80
*417 TAP_TAPCELL_ROW_19_81
*418 TAP_TAPCELL_ROW_19_82
*419 TAP_TAPCELL_ROW_19_83
*420 TAP_TAPCELL_ROW_1_44
*421 TAP_TAPCELL_ROW_1_45
*422 TAP_TAPCELL_ROW_2_46
*423 TAP_TAPCELL_ROW_2_47
*424 TAP_TAPCELL_ROW_3_48
*425 TAP_TAPCELL_ROW_3_49
*426 TAP_TAPCELL_ROW_4_50
*427 TAP_TAPCELL_ROW_4_51
*428 TAP_TAPCELL_ROW_5_52
*429 TAP_TAPCELL_ROW_5_53
*430 TAP_TAPCELL_ROW_6_54
*431 TAP_TAPCELL_ROW_6_55
*432 TAP_TAPCELL_ROW_7_56
*433 TAP_TAPCELL_ROW_7_57
*434 TAP_TAPCELL_ROW_8_58
*435 TAP_TAPCELL_ROW_8_59
*436 TAP_TAPCELL_ROW_9_60
*437 TAP_TAPCELL_ROW_9_61
*438 _066_
*439 _067_
*440 _068_
*441 _069_
*442 _070_
*443 _071_
*444 _072_
*445 _073_
*446 _074_
*447 _075_
*448 _076_
*449 _077_
*450 _078_
*451 _079_
*452 _080_
*453 _081_
*454 _082_
*455 _083_
*456 _084_
*457 _085_
*458 _086_
*459 _087_
*460 _088_
*461 _089_
*462 _090_
*463 _091_
*464 _092_
*465 _093_
*466 _094_
*467 _095_
*468 _096_
*469 _097_
*470 _098_
*471 _099_
*472 _100_
*473 _101_
*474 _102_
*475 _103_
*476 _104_
*477 _105_
*478 _106_
*479 _107_
*480 _108_
*481 _109_
*482 _110_
*483 _111_
*484 _112_
*485 _113_
*486 _114_
*487 _115_
*488 _116_
*489 _117_
*490 _118_
*491 _119_
*492 _120_
*493 _121_
*494 _122_
*495 _123_
*496 _124_
*497 _125_
*498 _126_
*499 _127_
*500 _128_
*501 _129_
*502 _130_
*503 _131_
*504 _132_
*505 _133_
*506 _134_
*507 _135_
*508 _136_
*509 _137_
*510 _138_
*511 _139_
*512 _140_
*513 _141_
*514 _142_
*515 _143_
*516 _144_
*517 _145_
*518 _146_
*519 _147_
*520 _148_
*521 _149_
*522 _150_
*523 _151_
*524 _152_
*525 _153_
*526 _154_
*527 _155_
*528 _156_
*529 _157_
*530 _158_
*531 _159_
*532 _160_
*533 _161_
*534 _162_
*535 _163_
*536 _164_
*537 _165_
*538 _166_
*539 _167_
*540 _168_
*541 _169_
*542 _170_
*543 _171_
*544 _172_
*545 _173_
*546 _174_
*547 _175_
*548 _176_
*549 _177_
*550 _178_
*551 _179_
*552 _180_
*553 _181_
*554 _182_
*555 _183_
*556 _184_
*557 _185_
*558 _186_
*559 _187_
*560 _188_
*561 _189_
*562 _190_
*563 _191_
*564 clkbuf_0_clk
*565 clkbuf_2_0__f_clk
*566 clkbuf_2_1__f_clk
*567 clkbuf_2_2__f_clk
*568 clkbuf_2_3__f_clk
*569 clkload0
*570 clkload1
*571 clkload2
*572 fanout32
*573 fanout33
*574 fanout34
*575 fanout35
*576 hold1
*577 hold10
*578 hold11
*579 hold12
*580 hold13
*581 hold14
*582 hold15
*583 hold16
*584 hold17
*585 hold18
*586 hold19
*587 hold2
*588 hold20
*589 hold21
*590 hold22
*591 hold23
*592 hold24
*593 hold25
*594 hold3
*595 hold4
*596 hold5
*597 hold6
*598 hold7
*599 hold8
*600 hold9
*601 input1
*602 output10
*603 output11
*604 output12
*605 output13
*606 output14
*607 output15
*608 output16
*609 output17
*610 output18
*611 output19
*612 output2
*613 output20
*614 output21
*615 output22
*616 output23
*617 output24
*618 output25
*619 output26
*620 output27
*621 output28
*622 output29
*623 output3
*624 output30
*625 output31
*626 output4
*627 output5
*628 output6
*629 output7
*630 output8
*631 output9

*PORTS
clk I
current_pc[0] O
current_pc[10] O
current_pc[11] O
current_pc[12] O
current_pc[13] O
current_pc[14] O
current_pc[15] O
current_pc[16] O
current_pc[17] O
current_pc[18] O
current_pc[19] O
current_pc[1] O
current_pc[20] O
current_pc[21] O
current_pc[22] O
current_pc[23] O
current_pc[24] O
current_pc[25] O
current_pc[26] O
current_pc[27] O
current_pc[28] O
current_pc[29] O
current_pc[2] O
current_pc[30] O
current_pc[31] O
current_pc[3] O
current_pc[4] O
current_pc[5] O
current_pc[6] O
current_pc[7] O
current_pc[8] O
current_pc[9] O
reset I

*D_NET *3 0.00618783
*CONN
*P clk I
*I *564:A I *D sky130_fd_sc_hd__clkbuf_16
*CAP
1 clk 0.00236981
2 *564:A 0.000314142
3 *3:11 0.00268395
4 *3:11 *131:10 6.48263e-05
5 *3:11 *131:20 4.40412e-05
6 *3:11 *136:10 0.000136609
7 *3:11 *136:76 0.00053177
8 *3:11 *159:55 1.03972e-05
9 *3:11 *165:81 3.22751e-05
*RES
1 clk *3:11 46.0228 
2 *3:11 *564:A 28.3857 
*END

*D_NET *4 0.000698221
*CONN
*P current_pc[0] O
*I *352:LO O *D sky130_fd_sc_hd__conb_1
*CAP
1 current_pc[0] 0.000326656
2 *352:LO 0.000326656
3 current_pc[0] current_pc[30] 4.49087e-05
*RES
1 *352:LO current_pc[0] 48.4047 
*END

*D_NET *5 0.00083368
*CONN
*P current_pc[10] O
*I *612:X O *D sky130_fd_sc_hd__buf_2
*CAP
1 current_pc[10] 0.000106863
2 *612:X 0.000300296
3 *5:10 0.000407158
4 current_pc[10] current_pc[11] 1.0569e-05
5 current_pc[10] *6:14 8.79469e-06
6 *5:10 *6:14 0
*RES
1 *612:X *5:10 42.5054 
2 *5:10 current_pc[10] 8.4816 
*END

*D_NET *6 0.000767699
*CONN
*P current_pc[11] O
*I *623:X O *D sky130_fd_sc_hd__buf_2
*CAP
1 current_pc[11] 8.87661e-05
2 *623:X 0.000285402
3 *6:14 0.000374168
4 current_pc[10] current_pc[11] 1.0569e-05
5 current_pc[10] *6:14 8.79469e-06
6 *5:10 *6:14 0
*RES
1 *623:X *6:14 49.9 
2 *6:14 current_pc[11] 0.382667 
*END

*D_NET *7 0.00091909
*CONN
*P current_pc[12] O
*I *626:X O *D sky130_fd_sc_hd__buf_2
*CAP
1 current_pc[12] 0.000455739
2 *626:X 0.000455739
3 current_pc[12] current_pc[13] 0
4 current_pc[12] *626:A 7.61229e-06
*RES
1 *626:X current_pc[12] 47.0936 
*END

*D_NET *8 0.000932056
*CONN
*P current_pc[13] O
*I *627:X O *D sky130_fd_sc_hd__buf_2
*CAP
1 current_pc[13] 0.000466028
2 *627:X 0.000466028
3 current_pc[12] current_pc[13] 0
*RES
1 *627:X current_pc[13] 47.0936 
*END

*D_NET *9 0.00094521
*CONN
*P current_pc[14] O
*I *628:X O *D sky130_fd_sc_hd__buf_2
*CAP
1 current_pc[14] 0.000470149
2 *628:X 0.000470149
3 current_pc[14] *191:22 4.91172e-06
*RES
1 *628:X current_pc[14] 47.0936 
*END

*D_NET *10 0.000846125
*CONN
*P current_pc[15] O
*I *629:X O *D sky130_fd_sc_hd__buf_2
*CAP
1 current_pc[15] 0.000423062
2 *629:X 0.000423062
3 current_pc[15] current_pc[17] 0
*RES
1 *629:X current_pc[15] 47.2386 
*END

*D_NET *11 0.00095548
*CONN
*P current_pc[16] O
*I *630:X O *D sky130_fd_sc_hd__buf_2
*CAP
1 current_pc[16] 0.000450618
2 *630:X 0.000450618
3 current_pc[16] current_pc[17] 0
4 current_pc[16] *163:110 5.42433e-05
*RES
1 *630:X current_pc[16] 47.0936 
*END

*D_NET *12 0.000920703
*CONN
*P current_pc[17] O
*I *631:X O *D sky130_fd_sc_hd__buf_2
*CAP
1 current_pc[17] 0.000446507
2 *631:X 0.000446507
3 current_pc[17] *630:A 2.00768e-05
4 current_pc[17] *631:A 7.61229e-06
5 current_pc[15] current_pc[17] 0
6 current_pc[16] current_pc[17] 0
*RES
1 *631:X current_pc[17] 47.0936 
*END

*D_NET *13 0.00120198
*CONN
*P current_pc[18] O
*I *602:X O *D sky130_fd_sc_hd__buf_2
*CAP
1 current_pc[18] 0.000538552
2 *602:X 0.000538552
3 current_pc[18] current_pc[19] 4.94133e-05
4 current_pc[18] current_pc[25] 0
5 current_pc[18] current_pc[27] 5.63181e-05
6 current_pc[18] *166:14 1.91473e-05
*RES
1 *602:X current_pc[18] 48.2984 
*END

*D_NET *14 0.0013303
*CONN
*P current_pc[19] O
*I *603:X O *D sky130_fd_sc_hd__buf_2
*CAP
1 current_pc[19] 0.000158518
2 *603:X 0.000247237
3 *14:10 0.000405755
4 current_pc[19] current_pc[25] 4.20114e-05
5 *14:10 *21:10 2.29844e-05
6 *14:10 *120:18 0.000404381
7 current_pc[18] current_pc[19] 4.94133e-05
*RES
1 *603:X *14:10 43.1061 
2 *14:10 current_pc[19] 8.672 
*END

*D_NET *15 0.00278868
*CONN
*P current_pc[1] O
*I *353:LO O *D sky130_fd_sc_hd__conb_1
*CAP
1 current_pc[1] 0.000697719
2 *353:LO 0.000372965
3 *15:10 0.00107068
4 current_pc[1] current_pc[22] 7.46027e-05
5 *15:10 *487:A 0.00020498
6 *15:10 *555:RESET_B 1.94812e-05
7 *15:10 *590:A 5.5792e-05
8 *15:10 *18:10 0.000147237
9 *15:10 *50:10 5.3304e-05
10 *15:10 *88:8 3.78916e-05
11 *15:10 *166:61 5.40241e-05
*RES
1 *353:LO *15:10 45.5918 
2 *15:10 current_pc[1] 9.87413 
*END

*D_NET *16 0.00156977
*CONN
*P current_pc[20] O
*I *604:X O *D sky130_fd_sc_hd__buf_2
*CAP
1 current_pc[20] 0.000172423
2 *604:X 0.000324596
3 *16:10 0.000497019
4 current_pc[20] current_pc[24] 4.32029e-05
5 current_pc[20] current_pc[25] 4.32029e-05
6 *16:10 *21:10 5.25177e-05
7 *16:10 *120:10 1.18349e-05
8 *16:10 *120:18 0.000424975
*RES
1 *604:X *16:10 44.8254 
2 *16:10 current_pc[20] 8.672 
*END

*D_NET *17 0.00108341
*CONN
*P current_pc[21] O
*I *605:X O *D sky130_fd_sc_hd__buf_2
*CAP
1 current_pc[21] 0.000244022
2 *605:X 0.000197403
3 *17:12 0.000441425
4 current_pc[21] current_pc[22] 0
5 current_pc[21] current_pc[23] 4.49894e-05
6 current_pc[21] current_pc[24] 4.94968e-05
7 *17:12 *488:B 7.48828e-05
8 *17:12 *144:23 3.11916e-05
*RES
1 *605:X *17:12 49.7596 
2 *17:12 current_pc[21] 0.843733 
*END

*D_NET *18 0.0024669
*CONN
*P current_pc[22] O
*I *606:X O *D sky130_fd_sc_hd__buf_2
*CAP
1 current_pc[22] 0.000641172
2 *606:X 0.000289987
3 *18:10 0.00093116
4 current_pc[22] current_pc[23] 4.61194e-05
5 *18:10 *555:RESET_B 0.000123361
6 *18:10 *590:A 9.22409e-05
7 *18:10 *118:10 0.000121016
8 current_pc[1] current_pc[22] 7.46027e-05
9 current_pc[21] current_pc[22] 0
10 *15:10 *18:10 0.000147237
*RES
1 *606:X *18:10 43.2096 
2 *18:10 current_pc[22] 9.53067 
*END

*D_NET *19 0.00154338
*CONN
*P current_pc[23] O
*I *607:X O *D sky130_fd_sc_hd__buf_2
*CAP
1 current_pc[23] 0.000203868
2 *607:X 0.000313345
3 *19:10 0.000517213
4 *19:10 *144:23 0.000310982
5 *19:10 *144:38 0.00010686
6 *19:10 *190:8 0
7 current_pc[21] current_pc[23] 4.49894e-05
8 current_pc[22] current_pc[23] 4.61194e-05
*RES
1 *607:X *19:10 44.3489 
2 *19:10 current_pc[23] 8.75787 
*END

*D_NET *20 0.000861121
*CONN
*P current_pc[24] O
*I *608:X O *D sky130_fd_sc_hd__buf_2
*CAP
1 current_pc[24] 0.000380424
2 *608:X 0.000380424
3 current_pc[24] *120:10 7.57281e-06
4 current_pc[20] current_pc[24] 4.32029e-05
5 current_pc[21] current_pc[24] 4.94968e-05
*RES
1 *608:X current_pc[24] 49.1297 
*END

*D_NET *21 0.0012692
*CONN
*P current_pc[25] O
*I *609:X O *D sky130_fd_sc_hd__buf_2
*CAP
1 current_pc[25] 0.000233777
2 *609:X 0.000309591
3 *21:10 0.000543368
4 *21:10 *602:A 0
5 *21:10 *120:18 2.1744e-05
6 current_pc[18] current_pc[25] 0
7 current_pc[19] current_pc[25] 4.20114e-05
8 current_pc[20] current_pc[25] 4.32029e-05
9 *14:10 *21:10 2.29844e-05
10 *16:10 *21:10 5.25177e-05
*RES
1 *609:X *21:10 43.1682 
2 *21:10 current_pc[25] 8.84373 
*END

*D_NET *22 0.00201242
*CONN
*P current_pc[26] O
*I *610:X O *D sky130_fd_sc_hd__buf_2
*CAP
1 current_pc[26] 0.000247679
2 *610:X 0.000378606
3 *22:10 0.000626285
4 current_pc[26] current_pc[27] 5.63181e-05
5 current_pc[26] current_pc[28] 4.21402e-05
6 *22:10 *24:10 9.31723e-05
7 *22:10 *36:13 2.21614e-05
8 *22:10 *147:61 0.000112303
9 *22:10 *148:14 0.000433754
*RES
1 *610:X *22:10 45.9854 
2 *22:10 current_pc[26] 8.84373 
*END

*D_NET *23 0.00103771
*CONN
*P current_pc[27] O
*I *611:X O *D sky130_fd_sc_hd__buf_2
*CAP
1 current_pc[27] 0.000374423
2 *611:X 0.000374423
3 current_pc[27] *148:36 0.000176229
4 current_pc[18] current_pc[27] 5.63181e-05
5 current_pc[26] current_pc[27] 5.63181e-05
*RES
1 *611:X current_pc[27] 49.6712 
*END

*D_NET *24 0.00179325
*CONN
*P current_pc[28] O
*I *613:X O *D sky130_fd_sc_hd__buf_2
*CAP
1 current_pc[28] 0.000173417
2 *613:X 0.000318359
3 *24:10 0.000491776
4 current_pc[28] *36:13 4.32029e-05
5 *24:10 *36:13 4.74824e-05
6 *24:10 *147:48 0.000100069
7 *24:10 *148:14 0.00017906
8 *24:10 *166:77 0.000114599
9 *24:10 *166:89 0.000189973
10 current_pc[26] current_pc[28] 4.21402e-05
11 *22:10 *24:10 9.31723e-05
*RES
1 *613:X *24:10 45.6746 
2 *24:10 current_pc[28] 8.672 
*END

*D_NET *25 0.000861563
*CONN
*P current_pc[29] O
*I *614:X O *D sky130_fd_sc_hd__buf_2
*CAP
1 current_pc[29] 0.000359609
2 *614:X 0.000359609
3 current_pc[29] current_pc[30] 5.89212e-05
4 current_pc[29] *36:13 8.34234e-05
*RES
1 *614:X current_pc[29] 47.955 
*END

*D_NET *26 0.00104547
*CONN
*P current_pc[2] O
*I *615:X O *D sky130_fd_sc_hd__buf_2
*CAP
1 current_pc[2] 0.000522736
2 *615:X 0.000522736
*RES
1 *615:X current_pc[2] 49.3514 
*END

*D_NET *27 0.000731936
*CONN
*P current_pc[30] O
*I *616:X O *D sky130_fd_sc_hd__buf_2
*CAP
1 current_pc[30] 0.000302273
2 *616:X 0.000302273
3 current_pc[30] *36:13 2.356e-05
4 current_pc[0] current_pc[30] 4.49087e-05
5 current_pc[29] current_pc[30] 5.89212e-05
*RES
1 *616:X current_pc[30] 47.6028 
*END

*D_NET *28 0.00212292
*CONN
*P current_pc[31] O
*I *617:X O *D sky130_fd_sc_hd__buf_2
*CAP
1 current_pc[31] 0.000367653
2 *617:X 0.000423352
3 *28:8 0.000791004
4 *28:8 *533:A 0.000351224
5 *28:8 *167:8 0.000189689
*RES
1 *617:X *28:8 44.815 
2 *28:8 current_pc[31] 7.99571 
*END

*D_NET *29 0.000976314
*CONN
*P current_pc[3] O
*I *618:X O *D sky130_fd_sc_hd__buf_2
*CAP
1 current_pc[3] 0.000488157
2 *618:X 0.000488157
*RES
1 *618:X current_pc[3] 49.2064 
*END

*D_NET *30 0.00104147
*CONN
*P current_pc[4] O
*I *619:X O *D sky130_fd_sc_hd__buf_2
*CAP
1 current_pc[4] 0.000520737
2 *619:X 0.000520737
*RES
1 *619:X current_pc[4] 49.6829 
*END

*D_NET *31 0.00106958
*CONN
*P current_pc[5] O
*I *620:X O *D sky130_fd_sc_hd__buf_2
*CAP
1 current_pc[5] 0.000534792
2 *620:X 0.000534792
*RES
1 *620:X current_pc[5] 49.6829 
*END

*D_NET *32 0.00119711
*CONN
*P current_pc[6] O
*I *621:X O *D sky130_fd_sc_hd__buf_2
*CAP
1 current_pc[6] 0.000104953
2 *621:X 0.000480722
3 *32:10 0.000585675
4 current_pc[6] current_pc[7] 1.0569e-05
5 current_pc[6] *33:14 1.51945e-05
6 *32:10 *63:8 0
*RES
1 *621:X *32:10 46.7311 
2 *32:10 current_pc[6] 8.4816 
*END

*D_NET *33 0.000740341
*CONN
*P current_pc[7] O
*I *622:X O *D sky130_fd_sc_hd__buf_2
*CAP
1 current_pc[7] 8.64966e-05
2 *622:X 0.000236192
3 *33:14 0.000322689
4 current_pc[7] current_pc[8] 1.35651e-05
5 *33:14 *136:18 5.56356e-05
6 current_pc[6] current_pc[7] 1.0569e-05
7 current_pc[6] *33:14 1.51945e-05
*RES
1 *622:X *33:14 49.9 
2 *33:14 current_pc[7] 0.382667 
*END

*D_NET *34 0.000839419
*CONN
*P current_pc[8] O
*I *624:X O *D sky130_fd_sc_hd__buf_2
*CAP
1 current_pc[8] 0.000107625
2 *624:X 0.000293243
3 *34:10 0.000400867
4 current_pc[8] current_pc[9] 1.0569e-05
5 current_pc[8] *35:14 1.35507e-05
6 *34:10 *541:CLK 0
7 *34:10 *35:14 0
8 current_pc[7] current_pc[8] 1.35651e-05
*RES
1 *624:X *34:10 42.8575 
2 *34:10 current_pc[8] 8.4816 
*END

*D_NET *35 0.000791933
*CONN
*P current_pc[9] O
*I *625:X O *D sky130_fd_sc_hd__buf_2
*CAP
1 current_pc[9] 8.78352e-05
2 *625:X 0.000296071
3 *35:14 0.000383907
4 current_pc[8] current_pc[9] 1.0569e-05
5 current_pc[8] *35:14 1.35507e-05
6 *34:10 *35:14 0
*RES
1 *625:X *35:14 49.9 
2 *35:14 current_pc[9] 0.382667 
*END

*D_NET *36 0.0019076
*CONN
*P reset I
*I *601:A I *D sky130_fd_sc_hd__clkbuf_1
*CAP
1 reset 0.00078129
2 *601:A 0
3 *36:13 0.00078129
4 *36:13 *166:89 0.000125187
5 current_pc[28] *36:13 4.32029e-05
6 current_pc[29] *36:13 8.34234e-05
7 current_pc[30] *36:13 2.356e-05
8 *22:10 *36:13 2.21614e-05
9 *24:10 *36:13 4.74824e-05
*RES
1 reset *36:13 34.8089 
2 *36:13 *601:A 23 
*END

*D_NET *37 0.000435957
*CONN
*I *542:D I *D sky130_fd_sc_hd__dfrtp_1
*I *456:X O *D sky130_fd_sc_hd__xor2_1
*CAP
1 *542:D 0
2 *456:X 0.00014883
3 *37:10 0.00014883
4 *37:10 *456:B 7.35193e-06
5 *37:10 *542:CLK 7.5153e-05
6 *37:10 *181:6 5.5792e-05
*RES
1 *456:X *37:10 41.2314 
2 *37:10 *542:D 38 
*END

*D_NET *38 0.00188548
*CONN
*I *543:D I *D sky130_fd_sc_hd__dfrtp_1
*I *459:X O *D sky130_fd_sc_hd__and2b_1
*CAP
1 *543:D 0.000625318
2 *459:X 5.39567e-05
3 *38:8 0.000679274
4 *543:D *542:RESET_B 2.33744e-05
5 *543:D *149:10 0.000114895
6 *543:D *160:16 9.25364e-05
7 *543:D *160:36 1.83327e-05
8 *38:8 *458:A2 0.000137754
9 *38:8 *103:8 0.000140036
*RES
1 *459:X *38:8 39.9057 
2 *38:8 *543:D 49.1029 
*END

*D_NET *39 0.000466684
*CONN
*I *544:D I *D sky130_fd_sc_hd__dfrtp_1
*I *461:X O *D sky130_fd_sc_hd__xor2_1
*CAP
1 *544:D 0
2 *461:X 0.000173787
3 *39:10 0.000173787
4 *39:10 *545:CLK 0.00011911
*RES
1 *461:X *39:10 41.7079 
2 *39:10 *544:D 38 
*END

*D_NET *40 0.00131516
*CONN
*I *545:D I *D sky130_fd_sc_hd__dfrtp_1
*I *464:X O *D sky130_fd_sc_hd__xor2_1
*CAP
1 *545:D 0.000204572
2 *464:X 0.00010611
3 *40:8 0.000310682
4 *545:D *545:CLK 0.000102274
5 *40:8 *461:B 0.000296818
6 *40:8 *173:8 0.000294708
*RES
1 *464:X *40:8 42.0186 
2 *40:8 *545:D 41.0243 
*END

*D_NET *41 0.000794191
*CONN
*I *546:D I *D sky130_fd_sc_hd__dfrtp_1
*I *466:X O *D sky130_fd_sc_hd__xor2_1
*CAP
1 *546:D 9.36582e-05
2 *466:X 0.000162513
3 *41:10 0.000256171
4 *546:D *134:62 7.43114e-05
5 *41:10 *627:A 9.43014e-05
6 *41:10 *180:21 0.000113235
*RES
1 *466:X *41:10 41.7079 
2 *41:10 *546:D 39.5743 
*END

*D_NET *42 0.000877497
*CONN
*I *547:D I *D sky130_fd_sc_hd__dfrtp_1
*I *468:Y O *D sky130_fd_sc_hd__xnor2_1
*CAP
1 *547:D 0.000101492
2 *468:Y 0.000194348
3 *42:10 0.00029584
4 *547:D *108:8 2.5216e-06
5 *547:D *191:46 5.56356e-05
6 *547:D *195:20 4.4859e-06
7 *42:10 *468:B 5.5792e-05
8 *42:10 *469:B 0.000110267
9 *42:10 *191:22 3.98272e-05
10 *42:10 *191:76 2.24366e-06
11 *42:10 *196:67 1.50445e-05
*RES
1 *468:Y *42:10 41.5836 
2 *42:10 *547:D 39.595 
*END

*D_NET *43 0.00046337
*CONN
*I *548:D I *D sky130_fd_sc_hd__dfrtp_1
*I *470:X O *D sky130_fd_sc_hd__xor2_1
*CAP
1 *548:D 9.04567e-05
2 *470:X 9.04567e-05
3 *548:D *470:A 1.358e-05
4 *548:D *565:A 1.24376e-05
5 *548:D *566:A 0.000172519
6 *548:D *135:71 8.39199e-05
*RES
1 *470:X *548:D 49.19 
*END

*D_NET *44 0.000726452
*CONN
*I *549:D I *D sky130_fd_sc_hd__dfrtp_1
*I *473:X O *D sky130_fd_sc_hd__o21ba_1
*CAP
1 *549:D 0
2 *473:X 0.000245175
3 *44:10 0.000245175
4 *44:10 *111:6 0.000236102
*RES
1 *473:X *44:10 42.0807 
2 *44:10 *549:D 38 
*END

*D_NET *45 0.000404169
*CONN
*I *550:D I *D sky130_fd_sc_hd__dfrtp_1
*I *474:X O *D sky130_fd_sc_hd__xor2_1
*CAP
1 *550:D 0
2 *474:X 0.000173267
3 *45:10 0.000173267
4 *45:10 *111:23 5.76359e-05
*RES
1 *474:X *45:10 41.0036 
2 *45:10 *550:D 38 
*END

*D_NET *46 0.00047258
*CONN
*I *551:D I *D sky130_fd_sc_hd__dfrtp_1
*I *477:Y O *D sky130_fd_sc_hd__nor2_1
*CAP
1 *551:D 0
2 *477:Y 0.000214573
3 *46:10 0.000214573
4 *46:10 *477:B 2.98475e-06
5 *46:10 *137:63 4.04496e-05
*RES
1 *477:Y *46:10 41.48 
2 *46:10 *551:D 38 
*END

*D_NET *47 0.00115952
*CONN
*I *552:D I *D sky130_fd_sc_hd__dfrtp_1
*I *480:Y O *D sky130_fd_sc_hd__nor2_1
*CAP
1 *552:D 0
2 *480:Y 0.000503288
3 *47:10 0.000503288
4 *47:10 *480:B 5.81185e-05
5 *47:10 *137:61 4.13477e-05
6 *47:10 *137:63 5.34813e-05
*RES
1 *480:Y *47:10 46.2029 
2 *47:10 *552:D 38 
*END

*D_NET *48 0.000369668
*CONN
*I *553:D I *D sky130_fd_sc_hd__dfrtp_1
*I *483:X O *D sky130_fd_sc_hd__o21ba_1
*CAP
1 *553:D 0
2 *483:X 0.000184834
3 *48:12 0.000184834
4 *48:12 *141:10 0
*RES
1 *483:X *48:12 41.0243 
2 *48:12 *553:D 38 
*END

*D_NET *49 0.000432533
*CONN
*I *554:D I *D sky130_fd_sc_hd__dfrtp_1
*I *484:X O *D sky130_fd_sc_hd__xor2_1
*CAP
1 *554:D 0
2 *484:X 0.000187449
3 *49:10 0.000187449
4 *49:10 *117:44 5.76359e-05
*RES
1 *484:X *49:10 41.0036 
2 *49:10 *554:D 38 
*END

*D_NET *50 0.00161655
*CONN
*I *555:D I *D sky130_fd_sc_hd__dfrtp_1
*I *487:Y O *D sky130_fd_sc_hd__nor2_1
*CAP
1 *555:D 0.000107099
2 *487:Y 0.000413592
3 *50:10 0.000520691
4 *555:D *555:CLK 1.3523e-05
5 *50:10 *117:60 0.000138747
6 *50:10 *119:14 0.000135616
7 *50:10 *143:27 8.23723e-05
8 *50:10 *166:61 1.07299e-05
9 *50:10 *186:10 0.000140875
10 *15:10 *50:10 5.3304e-05
*RES
1 *487:Y *50:10 45.8093 
2 *50:10 *555:D 40.0714 
*END

*D_NET *51 0.00216622
*CONN
*I *556:D I *D sky130_fd_sc_hd__dfrtp_1
*I *489:X O *D sky130_fd_sc_hd__o2bb2a_1
*CAP
1 *556:D 0.000224604
2 *489:X 0.000546986
3 *51:10 0.000771589
4 *556:D *556:CLK 2.93335e-05
5 *51:10 *486:B 0.000142173
6 *51:10 *489:B1 0.000142173
7 *51:10 *117:18 0.000111646
8 *51:10 *143:14 0.000179124
9 *51:10 *143:27 1.85903e-05
*RES
1 *489:X *51:10 48.875 
2 *51:10 *556:D 41.9564 
*END

*D_NET *52 0.00193331
*CONN
*I *557:D I *D sky130_fd_sc_hd__dfrtp_1
*I *492:Y O *D sky130_fd_sc_hd__nor2_1
*CAP
1 *557:D 8.0068e-05
2 *492:Y 0.000414394
3 *52:10 0.000494462
4 *557:D *557:CLK 2.31687e-05
5 *557:D *111:82 0.000228394
6 *557:D *116:22 5.3304e-05
7 *52:10 *492:A 0
8 *52:10 *111:69 0.000110184
9 *52:10 *116:22 0.000110258
10 *52:10 *139:52 1.20476e-05
11 *52:10 *165:12 0
12 *52:10 *165:145 0.000132638
13 *52:10 *166:29 0.000274396
*RES
1 *492:Y *52:10 45.3743 
2 *52:10 *557:D 40.5271 
*END

*D_NET *53 0.00175937
*CONN
*I *558:D I *D sky130_fd_sc_hd__dfrtp_1
*I *493:X O *D sky130_fd_sc_hd__xor2_1
*CAP
1 *558:D 0.000227525
2 *493:X 0.000348145
3 *53:8 0.000575669
4 *53:8 *91:8 3.19287e-05
5 *53:8 *163:151 0.000435226
6 *53:8 *187:8 0.000140875
*RES
1 *493:X *53:8 46.9486 
2 *53:8 *558:D 41.9564 
*END

*D_NET *54 0.00145291
*CONN
*I *559:D I *D sky130_fd_sc_hd__dfrtp_1
*I *496:Y O *D sky130_fd_sc_hd__nor2_1
*CAP
1 *559:D 4.02916e-05
2 *496:Y 0.000449936
3 *54:10 0.000490228
4 *559:D *122:44 2.93431e-05
5 *54:10 *559:CLK 6.67651e-05
6 *54:10 *55:10 8.36198e-05
7 *54:10 *135:45 5.0518e-05
8 *54:10 *135:88 9.87049e-05
9 *54:10 *147:31 0.000143509
*RES
1 *496:Y *54:10 46.7621 
2 *54:10 *559:D 38.6214 
*END

*D_NET *55 0.000632918
*CONN
*I *560:D I *D sky130_fd_sc_hd__dfrtp_1
*I *498:X O *D sky130_fd_sc_hd__xor2_1
*CAP
1 *560:D 0.000106163
2 *498:X 9.20478e-05
3 *55:10 0.000198211
4 *560:D *560:CLK 1.34562e-05
5 *55:10 *123:8 5.58003e-05
6 *55:10 *135:88 8.36198e-05
7 *54:10 *55:10 8.36198e-05
*RES
1 *498:X *55:10 39.8229 
2 *55:10 *560:D 39.1652 
*END

*D_NET *56 0.00193374
*CONN
*I *561:D I *D sky130_fd_sc_hd__dfrtp_1
*I *501:Y O *D sky130_fd_sc_hd__nor2_1
*CAP
1 *561:D 4.43927e-05
2 *501:Y 0.000403756
3 *56:10 0.000448149
4 *561:D *561:CLK 6.17437e-06
5 *561:D *127:29 8.06804e-06
6 *56:10 *496:B 4.67488e-05
7 *56:10 *126:10 0.000362307
8 *56:10 *135:10 0.000466299
9 *56:10 *135:16 6.2088e-05
10 *56:10 *135:45 8.57577e-05
*RES
1 *501:Y *56:10 47.3421 
2 *56:10 *561:D 38.6214 
*END

*D_NET *57 0.00124443
*CONN
*I *534:D I *D sky130_fd_sc_hd__dfrtp_1
*I *438:Y O *D sky130_fd_sc_hd__inv_2
*CAP
1 *534:D 0.000416908
2 *438:Y 0.000158913
3 *57:10 0.000575821
4 *534:D *131:10 7.74491e-06
5 *57:10 *67:8 8.50457e-05
*RES
1 *438:Y *57:10 40.2993 
2 *57:10 *534:D 42.93 
*END

*D_NET *58 0.00070564
*CONN
*I *562:D I *D sky130_fd_sc_hd__dfrtp_1
*I *503:X O *D sky130_fd_sc_hd__xor2_1
*CAP
1 *562:D 0
2 *503:X 0.000250031
3 *58:12 0.000250031
4 *58:12 *561:CLK 5.40241e-05
5 *58:12 *127:29 1.41123e-05
6 *58:12 *135:16 0.000137441
*RES
1 *503:X *58:12 43.0336 
2 *58:12 *562:D 38 
*END

*D_NET *59 0.000638076
*CONN
*I *563:D I *D sky130_fd_sc_hd__dfrtp_1
*I *504:X O *D sky130_fd_sc_hd__xor2_1
*CAP
1 *563:D 0
2 *504:X 0.000199024
3 *59:10 0.000199024
4 *59:10 *630:A 9.89901e-05
5 *59:10 *163:110 0.000141038
*RES
1 *504:X *59:10 41.48 
2 *59:10 *563:D 38 
*END

*D_NET *60 0.000740734
*CONN
*I *535:D I *D sky130_fd_sc_hd__dfrtp_1
*I *442:X O *D sky130_fd_sc_hd__and2_1
*CAP
1 *535:D 0.000152661
2 *442:X 8.27837e-05
3 *60:8 0.000235445
4 *535:D *535:RESET_B 0.000118868
5 *60:8 *157:10 1.0092e-05
6 *60:8 *157:21 0.000140884
*RES
1 *442:X *60:8 39.9057 
2 *60:8 *535:D 41.48 
*END

*D_NET *61 0.00211109
*CONN
*I *536:D I *D sky130_fd_sc_hd__dfrtp_1
*I *443:Y O *D sky130_fd_sc_hd__xnor2_1
*CAP
1 *536:D 0.000380645
2 *443:Y 0.000540089
3 *61:8 0.000920734
4 *536:D *69:8 5.511e-05
5 *536:D *137:59 0.000126514
6 *61:8 *443:A 3.22051e-05
7 *61:8 *619:A 2.93335e-05